.model bc847blp  npn is=5.62f nf=1.00 bf=450 vaf=121 ikf=70.3m ise=191f ne=2.00 br=4.00 nr=1.00 var=24.0 ikr=0.120 re=0.700 rb=2.80 rc=0.280 xtb=1.5 cje=14.6p vje=1.10 mje=0.500 cjc=6.93p vjc=0.300 mjc=0.300 tf=541p tr=86.5n eg=1.12

