.model di_bc857blp  pnp (is=3.72f nf=1.00 bf=650 vaf=121 ikf=54.7m ise=1.54p ne=2.00 br=4.00 nr=1.00 var=20.0 ikr=0.135 re=1.06 rb=4.26 rc=0.426 xtb=1.5 cje=26.8p vje=1.10 mje=0.500 cjc=8.67p vjc=0.300 mjc=0.300 tf=221p tr=49.1n eg=1.12 )

