.model C1971 NPN (Is=1.5e-14 Bf=320 Br=100 Va=60 Ik=100u Cjc=2e-12 Cje=4e-12 Cis=1e-12 Tf=0.4e-9 Nr=1 Ikf=0.1u Rb=100 Re=20 Rd=50)

