.model white_led d is=93.1p rs=42m n=7.47 bv=5 ibv=30u cjo=2.97p vj=.75 m=.333 tt=4.32u

